<?xml version="1.0" ?>
<additional>
    <vTypeDistribution id="car">
        <vType id="car1" accel="2.5" decel="4.5" length="4.14" maxSpeed="80" vClass="passenger" carFollowModel="EIDM" lcStrategic="1.0" lcKeepRight="0" lcOvertakeRight="1" lcCooperative="1" lcSpeedGain="1" lcLookaheadLeft="50"/>
        <vType id="car2" accel="2.5" decel="4.5" length="4.65" maxSpeed="80" vClass="passenger" carFollowModel="EIDM" lcStrategic="1.0" lcKeepRight="0" lcOvertakeRight="1" lcCooperative="1" lcSpeedGain="1" lcLookaheadLeft="50"/>
        <vType id="car4" accel="2.5" decel="4.5" length="4.85" maxSpeed="80" vClass="passenger" carFollowModel="EIDM" lcStrategic="1.0" lcKeepRight="0" lcOvertakeRight="1" lcCooperative="1" lcSpeedGain="1" lcLookaheadLeft="50"/>
        <vType id="car5" accel="2.5" decel="4.5" length="4.85" maxSpeed="80" vClass="passenger" carFollowModel="EIDM" lcStrategic="1.0" lcKeepRight="0" lcOvertakeRight="1" lcCooperative="1" lcSpeedGain="1" lcLookaheadLeft="50"/>
        <vType id="car8" accel="2.5" decel="4.5" length="5.05" maxSpeed="80" vClass="passenger" carFollowModel="EIDM" lcStrategic="1.0" lcKeepRight="0" lcOvertakeRight="1" lcCooperative="1" lcSpeedGain="1" lcLookaheadLeft="50"/>
        <vType id="car9" accel="2.5" decel="4.5" length="4.75" maxSpeed="80" vClass="passenger" carFollowModel="EIDM" lcStrategic="1.0" lcKeepRight="0" lcOvertakeRight="1" lcCooperative="1" lcSpeedGain="1" lcLookaheadLeft="50"/>
        <vType id="car10" accel="2.5" decel="4.5" length="5.05" maxSpeed="80" vClass="passenger" carFollowModel="EIDM" lcStrategic="1.0" lcKeepRight="0" lcOvertakeRight="1" lcCooperative="1" lcSpeedGain="1" lcLookaheadLeft="50"/>
        <vType id="car11" accel="2.5" decel="4.5" length="5.05" maxSpeed="80" vClass="passenger" carFollowModel="EIDM" lcStrategic="1.0" lcKeepRight="0" lcOvertakeRight="1" lcCooperative="1" lcSpeedGain="1" lcLookaheadLeft="50"/>
        <vType id="car12" accel="2.5" decel="4.5" length="4.55" maxSpeed="80" vClass="passenger" carFollowModel="EIDM" lcStrategic="1.0" lcKeepRight="0" lcOvertakeRight="1" lcCooperative="1" lcSpeedGain="1" lcLookaheadLeft="50"/>
        <vType id="car13" accel="2.5" decel="4.5" length="4.35" maxSpeed="80" vClass="passenger" carFollowModel="EIDM" lcStrategic="1.0" lcKeepRight="0" lcOvertakeRight="1" lcCooperative="1" lcSpeedGain="1" lcLookaheadLeft="50"/>
        <vType id="car14" accel="2.5" decel="4.5" length="5.26" maxSpeed="80" vClass="passenger" carFollowModel="EIDM" lcStrategic="1.0" lcKeepRight="0" lcOvertakeRight="1" lcCooperative="1" lcSpeedGain="1" lcLookaheadLeft="50"/>
        <vType id="car16" accel="2.5" decel="4.5" length="2.93" maxSpeed="80" vClass="passenger" carFollowModel="EIDM" lcStrategic="1.0" lcKeepRight="0" lcOvertakeRight="1" lcCooperative="1" lcSpeedGain="1" lcLookaheadLeft="50"/>
        <vType id="car18" accel="2.5" decel="4.5" length="4.65" maxSpeed="80" vClass="passenger" carFollowModel="EIDM" lcStrategic="1.0" lcKeepRight="0" lcOvertakeRight="1" lcCooperative="1" lcSpeedGain="1" lcLookaheadLeft="50"/>
        <vType id="car20" accel="2.5" decel="4.5" length="4.85" maxSpeed="80" vClass="passenger" carFollowModel="EIDM" lcStrategic="1.0" lcKeepRight="0" lcOvertakeRight="1" lcCooperative="1" lcSpeedGain="1" lcLookaheadLeft="50"/>
        <vType id="car22" accel="2.5" decel="4.5" length="10.91" maxSpeed="80" vClass="passenger" carFollowModel="EIDM" lcStrategic="1.0" lcKeepRight="0" lcOvertakeRight="1" lcCooperative="1" lcSpeedGain="1" lcLookaheadLeft="50"/>
        <vType id="car24" accel="2.5" decel="4.5" length="4.85" maxSpeed="80" vClass="passenger" carFollowModel="EIDM" lcStrategic="1.0" lcKeepRight="0" lcOvertakeRight="1" lcCooperative="1" lcSpeedGain="1" lcLookaheadLeft="50"/>
        <vType id="car25" accel="2.5" decel="4.5" length="4.55" maxSpeed="80" vClass="passenger" carFollowModel="EIDM" lcStrategic="1.0" lcKeepRight="0" lcOvertakeRight="1" lcCooperative="1" lcSpeedGain="1" lcLookaheadLeft="50"/>
        <vType id="car27" accel="2.5" decel="4.5" length="4.85" maxSpeed="80" vClass="passenger" carFollowModel="EIDM" lcStrategic="1.0" lcKeepRight="0" lcOvertakeRight="1" lcCooperative="1" lcSpeedGain="1" lcLookaheadLeft="50"/>
        <vType id="car28" accel="2.5" decel="4.5" length="4.85" maxSpeed="80" vClass="passenger" carFollowModel="EIDM" lcStrategic="1.0" lcKeepRight="0" lcOvertakeRight="1" lcCooperative="1" lcSpeedGain="1" lcLookaheadLeft="50"/>
        <vType id="car29" accel="2.5" decel="4.5" length="4.35" maxSpeed="80" vClass="passenger" carFollowModel="EIDM" lcStrategic="1.0" lcKeepRight="0" lcOvertakeRight="1" lcCooperative="1" lcSpeedGain="1" lcLookaheadLeft="50"/>
        <vType id="car30" accel="2.5" decel="4.5" length="5.76" maxSpeed="80" vClass="passenger" carFollowModel="EIDM" lcStrategic="1.0" lcKeepRight="0" lcOvertakeRight="1" lcCooperative="1" lcSpeedGain="1" lcLookaheadLeft="50"/>
        <vType id="car32" accel="2.5" decel="4.5" length="4.85" maxSpeed="80" vClass="passenger" carFollowModel="EIDM" lcStrategic="1.0" lcKeepRight="0" lcOvertakeRight="1" lcCooperative="1" lcSpeedGain="1" lcLookaheadLeft="50"/>
        <vType id="car35" accel="2.5" decel="4.5" length="5.05" maxSpeed="80" vClass="passenger" carFollowModel="EIDM" lcStrategic="1.0" lcKeepRight="0" lcOvertakeRight="1" lcCooperative="1" lcSpeedGain="1" lcLookaheadLeft="50"/>
        <vType id="car37" accel="2.5" decel="4.5" length="4.24" maxSpeed="80" vClass="passenger" carFollowModel="EIDM" lcStrategic="1.0" lcKeepRight="0" lcOvertakeRight="1" lcCooperative="1" lcSpeedGain="1" lcLookaheadLeft="50"/>
        <vType id="car38" accel="2.5" decel="4.5" length="4.55" maxSpeed="80" vClass="passenger" carFollowModel="EIDM" lcStrategic="1.0" lcKeepRight="0" lcOvertakeRight="1" lcCooperative="1" lcSpeedGain="1" lcLookaheadLeft="50"/>
        <vType id="car39" accel="2.5" decel="4.5" length="4.35" maxSpeed="80" vClass="passenger" carFollowModel="EIDM" lcStrategic="1.0" lcKeepRight="0" lcOvertakeRight="1" lcCooperative="1" lcSpeedGain="1" lcLookaheadLeft="50"/>
        <vType id="car40" accel="2.5" decel="4.5" length="4.65" maxSpeed="80" vClass="passenger" carFollowModel="EIDM" lcStrategic="1.0" lcKeepRight="0" lcOvertakeRight="1" lcCooperative="1" lcSpeedGain="1" lcLookaheadLeft="50"/>
        <vType id="car42" accel="2.5" decel="4.5" length="4.45" maxSpeed="80" vClass="passenger" carFollowModel="EIDM" lcStrategic="1.0" lcKeepRight="0" lcOvertakeRight="1" lcCooperative="1" lcSpeedGain="1" lcLookaheadLeft="50"/>
        <vType id="car43" accel="2.5" decel="4.5" length="2.73" maxSpeed="80" vClass="passenger" carFollowModel="EIDM" lcStrategic="1.0" lcKeepRight="0" lcOvertakeRight="1" lcCooperative="1" lcSpeedGain="1" lcLookaheadLeft="50"/>
        <vType id="car44" accel="2.5" decel="4.5" length="5.05" maxSpeed="80" vClass="passenger" carFollowModel="EIDM" lcStrategic="1.0" lcKeepRight="0" lcOvertakeRight="1" lcCooperative="1" lcSpeedGain="1" lcLookaheadLeft="50"/>
        <vType id="car45" accel="2.5" decel="4.5" length="4.50" maxSpeed="80" vClass="passenger" carFollowModel="EIDM" lcStrategic="1.0" lcKeepRight="0" lcOvertakeRight="1" lcCooperative="1" lcSpeedGain="1" lcLookaheadLeft="50"/>
        <vType id="car46" accel="2.5" decel="4.5" length="4.65" maxSpeed="80" vClass="passenger" carFollowModel="EIDM" lcStrategic="1.0" lcKeepRight="0" lcOvertakeRight="1" lcCooperative="1" lcSpeedGain="1" lcLookaheadLeft="50"/>
        <vType id="car47" accel="2.5" decel="4.5" length="4.45" maxSpeed="80" vClass="passenger" carFollowModel="EIDM" lcStrategic="1.0" lcKeepRight="0" lcOvertakeRight="1" lcCooperative="1" lcSpeedGain="1" lcLookaheadLeft="50"/>
        <vType id="car48" accel="2.5" decel="4.5" length="5.36" maxSpeed="80" vClass="passenger" carFollowModel="EIDM" lcStrategic="1.0" lcKeepRight="0" lcOvertakeRight="1" lcCooperative="1" lcSpeedGain="1" lcLookaheadLeft="50"/>
        <vType id="car49" accel="2.5" decel="4.5" length="4.85" maxSpeed="80" vClass="passenger" carFollowModel="EIDM" lcStrategic="1.0" lcKeepRight="0" lcOvertakeRight="1" lcCooperative="1" lcSpeedGain="1" lcLookaheadLeft="50"/>
        <vType id="car51" accel="2.5" decel="4.5" length="4.14" maxSpeed="80" vClass="passenger" carFollowModel="EIDM" lcStrategic="1.0" lcKeepRight="0" lcOvertakeRight="1" lcCooperative="1" lcSpeedGain="1" lcLookaheadLeft="50"/>
        <vType id="car52" accel="2.5" decel="4.5" length="4.85" maxSpeed="80" vClass="passenger" carFollowModel="EIDM" lcStrategic="1.0" lcKeepRight="0" lcOvertakeRight="1" lcCooperative="1" lcSpeedGain="1" lcLookaheadLeft="50"/>
        <vType id="car53" accel="2.5" decel="4.5" length="4.85" maxSpeed="80" vClass="passenger" carFollowModel="EIDM" lcStrategic="1.0" lcKeepRight="0" lcOvertakeRight="1" lcCooperative="1" lcSpeedGain="1" lcLookaheadLeft="50"/>
        <vType id="car54" accel="2.5" decel="4.5" length="4.65" maxSpeed="80" vClass="passenger" carFollowModel="EIDM" lcStrategic="1.0" lcKeepRight="0" lcOvertakeRight="1" lcCooperative="1" lcSpeedGain="1" lcLookaheadLeft="50"/>
        <vType id="car56" accel="2.5" decel="4.5" length="3.84" maxSpeed="80" vClass="passenger" carFollowModel="EIDM" lcStrategic="1.0" lcKeepRight="0" lcOvertakeRight="1" lcCooperative="1" lcSpeedGain="1" lcLookaheadLeft="50"/>
        <vType id="car57" accel="2.5" decel="4.5" length="4.45" maxSpeed="80" vClass="passenger" carFollowModel="EIDM" lcStrategic="1.0" lcKeepRight="0" lcOvertakeRight="1" lcCooperative="1" lcSpeedGain="1" lcLookaheadLeft="50"/>
        <vType id="car58" accel="2.5" decel="4.5" length="4.35" maxSpeed="80" vClass="passenger" carFollowModel="EIDM" lcStrategic="1.0" lcKeepRight="0" lcOvertakeRight="1" lcCooperative="1" lcSpeedGain="1" lcLookaheadLeft="50"/>
        <vType id="car59" accel="2.5" decel="4.5" length="4.65" maxSpeed="80" vClass="passenger" carFollowModel="EIDM" lcStrategic="1.0" lcKeepRight="0" lcOvertakeRight="1" lcCooperative="1" lcSpeedGain="1" lcLookaheadLeft="50"/>
        <vType id="car61" accel="2.5" decel="4.5" length="4.04" maxSpeed="80" vClass="passenger" carFollowModel="EIDM" lcStrategic="1.0" lcKeepRight="0" lcOvertakeRight="1" lcCooperative="1" lcSpeedGain="1" lcLookaheadLeft="50"/>
        <vType id="car62" accel="2.5" decel="4.5" length="4.45" maxSpeed="80" vClass="passenger" carFollowModel="EIDM" lcStrategic="1.0" lcKeepRight="0" lcOvertakeRight="1" lcCooperative="1" lcSpeedGain="1" lcLookaheadLeft="50"/>
        <vType id="car63" accel="2.5" decel="4.5" length="4.04" maxSpeed="80" vClass="passenger" carFollowModel="EIDM" lcStrategic="1.0" lcKeepRight="0" lcOvertakeRight="1" lcCooperative="1" lcSpeedGain="1" lcLookaheadLeft="50"/>
        <vType id="car64" accel="2.5" decel="4.5" length="4.75" maxSpeed="80" vClass="passenger" carFollowModel="EIDM" lcStrategic="1.0" lcKeepRight="0" lcOvertakeRight="1" lcCooperative="1" lcSpeedGain="1" lcLookaheadLeft="50"/>
        <vType id="car65" accel="2.5" decel="4.5" length="4.65" maxSpeed="80" vClass="passenger" carFollowModel="EIDM" lcStrategic="1.0" lcKeepRight="0" lcOvertakeRight="1" lcCooperative="1" lcSpeedGain="1" lcLookaheadLeft="50"/>
        <vType id="car67" accel="2.5" decel="4.5" length="6.97" maxSpeed="80" vClass="passenger" carFollowModel="EIDM" lcStrategic="1.0" lcKeepRight="0" lcOvertakeRight="1" lcCooperative="1" lcSpeedGain="1" lcLookaheadLeft="50"/>
        <vType id="car68" accel="2.5" decel="4.5" length="3.94" maxSpeed="80" vClass="passenger" carFollowModel="EIDM" lcStrategic="1.0" lcKeepRight="0" lcOvertakeRight="1" lcCooperative="1" lcSpeedGain="1" lcLookaheadLeft="50"/>
        <vType id="car69" accel="2.5" decel="4.5" length="4.35" maxSpeed="80" vClass="passenger" carFollowModel="EIDM" lcStrategic="1.0" lcKeepRight="0" lcOvertakeRight="1" lcCooperative="1" lcSpeedGain="1" lcLookaheadLeft="50"/>
        <vType id="car70" accel="2.5" decel="4.5" length="3.33" maxSpeed="80" vClass="passenger" carFollowModel="EIDM" lcStrategic="1.0" lcKeepRight="0" lcOvertakeRight="1" lcCooperative="1" lcSpeedGain="1" lcLookaheadLeft="50"/>
        <vType id="car71" accel="2.5" decel="4.5" length="4.45" maxSpeed="80" vClass="passenger" carFollowModel="EIDM" lcStrategic="1.0" lcKeepRight="0" lcOvertakeRight="1" lcCooperative="1" lcSpeedGain="1" lcLookaheadLeft="50"/>
        <vType id="car72" accel="2.5" decel="4.5" length="4.24" maxSpeed="80" vClass="passenger" carFollowModel="EIDM" lcStrategic="1.0" lcKeepRight="0" lcOvertakeRight="1" lcCooperative="1" lcSpeedGain="1" lcLookaheadLeft="50"/>
        <vType id="car73" accel="2.5" decel="4.5" length="4.75" maxSpeed="80" vClass="passenger" carFollowModel="EIDM" lcStrategic="1.0" lcKeepRight="0" lcOvertakeRight="1" lcCooperative="1" lcSpeedGain="1" lcLookaheadLeft="50"/>
        <vType id="car74" accel="2.5" decel="4.5" length="4.24" maxSpeed="80" vClass="passenger" carFollowModel="EIDM" lcStrategic="1.0" lcKeepRight="0" lcOvertakeRight="1" lcCooperative="1" lcSpeedGain="1" lcLookaheadLeft="50"/>
        <vType id="car75" accel="2.5" decel="4.5" length="4.45" maxSpeed="80" vClass="passenger" carFollowModel="EIDM" lcStrategic="1.0" lcKeepRight="0" lcOvertakeRight="1" lcCooperative="1" lcSpeedGain="1" lcLookaheadLeft="50"/>
        <vType id="car77" accel="2.5" decel="4.5" length="4.65" maxSpeed="80" vClass="passenger" carFollowModel="EIDM" lcStrategic="1.0" lcKeepRight="0" lcOvertakeRight="1" lcCooperative="1" lcSpeedGain="1" lcLookaheadLeft="50"/>
        <vType id="car78" accel="2.5" decel="4.5" length="4.04" maxSpeed="80" vClass="passenger" carFollowModel="EIDM" lcStrategic="1.0" lcKeepRight="0" lcOvertakeRight="1" lcCooperative="1" lcSpeedGain="1" lcLookaheadLeft="50"/>
        <vType id="car80" accel="2.5" decel="4.5" length="4.45" maxSpeed="80" vClass="passenger" carFollowModel="EIDM" lcStrategic="1.0" lcKeepRight="0" lcOvertakeRight="1" lcCooperative="1" lcSpeedGain="1" lcLookaheadLeft="50"/>
        <vType id="car81" accel="2.5" decel="4.5" length="6.97" maxSpeed="80" vClass="passenger" carFollowModel="EIDM" lcStrategic="1.0" lcKeepRight="0" lcOvertakeRight="1" lcCooperative="1" lcSpeedGain="1" lcLookaheadLeft="50"/>
        <vType id="car82" accel="2.5" decel="4.5" length="4.65" maxSpeed="80" vClass="passenger" carFollowModel="EIDM" lcStrategic="1.0" lcKeepRight="0" lcOvertakeRight="1" lcCooperative="1" lcSpeedGain="1" lcLookaheadLeft="50"/>
        <vType id="car83" accel="2.5" decel="4.5" length="4.65" maxSpeed="80" vClass="passenger" carFollowModel="EIDM" lcStrategic="1.0" lcKeepRight="0" lcOvertakeRight="1" lcCooperative="1" lcSpeedGain="1" lcLookaheadLeft="50"/>
        <vType id="car84" accel="2.5" decel="4.5" length="4.95" maxSpeed="80" vClass="passenger" carFollowModel="EIDM" lcStrategic="1.0" lcKeepRight="0" lcOvertakeRight="1" lcCooperative="1" lcSpeedGain="1" lcLookaheadLeft="50"/>
        <vType id="car85" accel="2.5" decel="4.5" length="4.35" maxSpeed="80" vClass="passenger" carFollowModel="EIDM" lcStrategic="1.0" lcKeepRight="0" lcOvertakeRight="1" lcCooperative="1" lcSpeedGain="1" lcLookaheadLeft="50"/>
        <vType id="car86" accel="2.5" decel="4.5" length="4.45" maxSpeed="80" vClass="passenger" carFollowModel="EIDM" lcStrategic="1.0" lcKeepRight="0" lcOvertakeRight="1" lcCooperative="1" lcSpeedGain="1" lcLookaheadLeft="50"/>
        <vType id="car87" accel="2.5" decel="4.5" length="4.04" maxSpeed="80" vClass="passenger" carFollowModel="EIDM" lcStrategic="1.0" lcKeepRight="0" lcOvertakeRight="1" lcCooperative="1" lcSpeedGain="1" lcLookaheadLeft="50"/>
        <vType id="car88" accel="2.5" decel="4.5" length="4.65" maxSpeed="80" vClass="passenger" carFollowModel="EIDM" lcStrategic="1.0" lcKeepRight="0" lcOvertakeRight="1" lcCooperative="1" lcSpeedGain="1" lcLookaheadLeft="50"/>
        <vType id="car89" accel="2.5" decel="4.5" length="4.24" maxSpeed="80" vClass="passenger" carFollowModel="EIDM" lcStrategic="1.0" lcKeepRight="0" lcOvertakeRight="1" lcCooperative="1" lcSpeedGain="1" lcLookaheadLeft="50"/>
        <vType id="car90" accel="2.5" decel="4.5" length="4.24" maxSpeed="80" vClass="passenger" carFollowModel="EIDM" lcStrategic="1.0" lcKeepRight="0" lcOvertakeRight="1" lcCooperative="1" lcSpeedGain="1" lcLookaheadLeft="50"/>
        <vType id="car91" accel="2.5" decel="4.5" length="4.95" maxSpeed="80" vClass="passenger" carFollowModel="EIDM" lcStrategic="1.0" lcKeepRight="0" lcOvertakeRight="1" lcCooperative="1" lcSpeedGain="1" lcLookaheadLeft="50"/>
        <vType id="car92" accel="2.5" decel="4.5" length="4.55" maxSpeed="80" vClass="passenger" carFollowModel="EIDM" lcStrategic="1.0" lcKeepRight="0" lcOvertakeRight="1" lcCooperative="1" lcSpeedGain="1" lcLookaheadLeft="50"/>
        <vType id="car93" accel="2.5" decel="4.5" length="4.85" maxSpeed="80" vClass="passenger" carFollowModel="EIDM" lcStrategic="1.0" lcKeepRight="0" lcOvertakeRight="1" lcCooperative="1" lcSpeedGain="1" lcLookaheadLeft="50"/>
        <vType id="car94" accel="2.5" decel="4.5" length="4.45" maxSpeed="80" vClass="passenger" carFollowModel="EIDM" lcStrategic="1.0" lcKeepRight="0" lcOvertakeRight="1" lcCooperative="1" lcSpeedGain="1" lcLookaheadLeft="50"/>
        <vType id="car95" accel="2.5" decel="4.5" length="4.65" maxSpeed="80" vClass="passenger" carFollowModel="EIDM" lcStrategic="1.0" lcKeepRight="0" lcOvertakeRight="1" lcCooperative="1" lcSpeedGain="1" lcLookaheadLeft="50"/>
        <vType id="car97" accel="2.5" decel="4.5" length="4.95" maxSpeed="80" vClass="passenger" carFollowModel="EIDM" lcStrategic="1.0" lcKeepRight="0" lcOvertakeRight="1" lcCooperative="1" lcSpeedGain="1" lcLookaheadLeft="50"/>
        <vType id="car98" accel="2.5" decel="4.5" length="4.35" maxSpeed="80" vClass="passenger" carFollowModel="EIDM" lcStrategic="1.0" lcKeepRight="0" lcOvertakeRight="1" lcCooperative="1" lcSpeedGain="1" lcLookaheadLeft="50"/>
        <vType id="car101" accel="2.5" decel="4.5" length="4.65" maxSpeed="80" vClass="passenger" carFollowModel="EIDM" lcStrategic="1.0" lcKeepRight="0" lcOvertakeRight="1" lcCooperative="1" lcSpeedGain="1" lcLookaheadLeft="50"/>
        <vType id="car102" accel="2.5" decel="4.5" length="4.14" maxSpeed="80" vClass="passenger" carFollowModel="EIDM" lcStrategic="1.0" lcKeepRight="0" lcOvertakeRight="1" lcCooperative="1" lcSpeedGain="1" lcLookaheadLeft="50"/>
        <vType id="car103" accel="2.5" decel="4.5" length="5.36" maxSpeed="80" vClass="passenger" carFollowModel="EIDM" lcStrategic="1.0" lcKeepRight="0" lcOvertakeRight="1" lcCooperative="1" lcSpeedGain="1" lcLookaheadLeft="50"/>
        <vType id="car104" accel="2.5" decel="4.5" length="4.75" maxSpeed="80" vClass="passenger" carFollowModel="EIDM" lcStrategic="1.0" lcKeepRight="0" lcOvertakeRight="1" lcCooperative="1" lcSpeedGain="1" lcLookaheadLeft="50"/>
        <vType id="car106" accel="2.5" decel="4.5" length="5.00" maxSpeed="80" vClass="passenger" carFollowModel="EIDM" lcStrategic="1.0" lcKeepRight="0" lcOvertakeRight="1" lcCooperative="1" lcSpeedGain="1" lcLookaheadLeft="50"/>
        <vType id="car107" accel="2.5" decel="4.5" length="4.04" maxSpeed="80" vClass="passenger" carFollowModel="EIDM" lcStrategic="1.0" lcKeepRight="0" lcOvertakeRight="1" lcCooperative="1" lcSpeedGain="1" lcLookaheadLeft="50"/>
        <vType id="car108" accel="2.5" decel="4.5" length="4.65" maxSpeed="80" vClass="passenger" carFollowModel="EIDM" lcStrategic="1.0" lcKeepRight="0" lcOvertakeRight="1" lcCooperative="1" lcSpeedGain="1" lcLookaheadLeft="50"/>
        <vType id="car109" accel="2.5" decel="4.5" length="4.14" maxSpeed="80" vClass="passenger" carFollowModel="EIDM" lcStrategic="1.0" lcKeepRight="0" lcOvertakeRight="1" lcCooperative="1" lcSpeedGain="1" lcLookaheadLeft="50"/>
        <vType id="car110" accel="2.5" decel="4.5" length="4.95" maxSpeed="80" vClass="passenger" carFollowModel="EIDM" lcStrategic="1.0" lcKeepRight="0" lcOvertakeRight="1" lcCooperative="1" lcSpeedGain="1" lcLookaheadLeft="50"/>
        <vType id="car111" accel="2.5" decel="4.5" length="5.15" maxSpeed="80" vClass="passenger" carFollowModel="EIDM" lcStrategic="1.0" lcKeepRight="0" lcOvertakeRight="1" lcCooperative="1" lcSpeedGain="1" lcLookaheadLeft="50"/>
        <vType id="car113" accel="2.5" decel="4.5" length="4.35" maxSpeed="80" vClass="passenger" carFollowModel="EIDM" lcStrategic="1.0" lcKeepRight="0" lcOvertakeRight="1" lcCooperative="1" lcSpeedGain="1" lcLookaheadLeft="50"/>
        <vType id="car114" accel="2.5" decel="4.5" length="4.65" maxSpeed="80" vClass="passenger" carFollowModel="EIDM" lcStrategic="1.0" lcKeepRight="0" lcOvertakeRight="1" lcCooperative="1" lcSpeedGain="1" lcLookaheadLeft="50"/>
        <vType id="car115" accel="2.5" decel="4.5" length="4.95" maxSpeed="80" vClass="passenger" carFollowModel="EIDM" lcStrategic="1.0" lcKeepRight="0" lcOvertakeRight="1" lcCooperative="1" lcSpeedGain="1" lcLookaheadLeft="50"/>
        <vType id="car116" accel="2.5" decel="4.5" length="4.45" maxSpeed="80" vClass="passenger" carFollowModel="EIDM" lcStrategic="1.0" lcKeepRight="0" lcOvertakeRight="1" lcCooperative="1" lcSpeedGain="1" lcLookaheadLeft="50"/>
        <vType id="car117" accel="2.5" decel="4.5" length="4.45" maxSpeed="80" vClass="passenger" carFollowModel="EIDM" lcStrategic="1.0" lcKeepRight="0" lcOvertakeRight="1" lcCooperative="1" lcSpeedGain="1" lcLookaheadLeft="50"/>
        <vType id="car118" accel="2.5" decel="4.5" length="4.55" maxSpeed="80" vClass="passenger" carFollowModel="EIDM" lcStrategic="1.0" lcKeepRight="0" lcOvertakeRight="1" lcCooperative="1" lcSpeedGain="1" lcLookaheadLeft="50"/>
        <vType id="car119" accel="2.5" decel="4.5" length="4.75" maxSpeed="80" vClass="passenger" carFollowModel="EIDM" lcStrategic="1.0" lcKeepRight="0" lcOvertakeRight="1" lcCooperative="1" lcSpeedGain="1" lcLookaheadLeft="50"/>
        <vType id="car124" accel="2.5" decel="4.5" length="4.75" maxSpeed="80" vClass="passenger" carFollowModel="EIDM" lcStrategic="1.0" lcKeepRight="0" lcOvertakeRight="1" lcCooperative="1" lcSpeedGain="1" lcLookaheadLeft="50"/>
        <vType id="car126" accel="2.5" decel="4.5" length="4.65" maxSpeed="80" vClass="passenger" carFollowModel="EIDM" lcStrategic="1.0" lcKeepRight="0" lcOvertakeRight="1" lcCooperative="1" lcSpeedGain="1" lcLookaheadLeft="50"/>
        <vType id="car127" accel="2.5" decel="4.5" length="4.35" maxSpeed="80" vClass="passenger" carFollowModel="EIDM" lcStrategic="1.0" lcKeepRight="0" lcOvertakeRight="1" lcCooperative="1" lcSpeedGain="1" lcLookaheadLeft="50"/>
        <vType id="car129" accel="2.5" decel="4.5" length="4.75" maxSpeed="80" vClass="passenger" carFollowModel="EIDM" lcStrategic="1.0" lcKeepRight="0" lcOvertakeRight="1" lcCooperative="1" lcSpeedGain="1" lcLookaheadLeft="50"/>
        <vType id="car132" accel="2.5" decel="4.5" length="4.75" maxSpeed="80" vClass="passenger" carFollowModel="EIDM" lcStrategic="1.0" lcKeepRight="0" lcOvertakeRight="1" lcCooperative="1" lcSpeedGain="1" lcLookaheadLeft="50"/>
        <vType id="car133" accel="2.5" decel="4.5" length="6.67" maxSpeed="80" vClass="passenger" carFollowModel="EIDM" lcStrategic="1.0" lcKeepRight="0" lcOvertakeRight="1" lcCooperative="1" lcSpeedGain="1" lcLookaheadLeft="50"/>
        <vType id="car134" accel="2.5" decel="4.5" length="4.55" maxSpeed="80" vClass="passenger" carFollowModel="EIDM" lcStrategic="1.0" lcKeepRight="0" lcOvertakeRight="1" lcCooperative="1" lcSpeedGain="1" lcLookaheadLeft="50"/>
        <vType id="car135" accel="2.5" decel="4.5" length="3.64" maxSpeed="80" vClass="passenger" carFollowModel="EIDM" lcStrategic="1.0" lcKeepRight="0" lcOvertakeRight="1" lcCooperative="1" lcSpeedGain="1" lcLookaheadLeft="50"/>
        <vType id="car136" accel="2.5" decel="4.5" length="3.74" maxSpeed="80" vClass="passenger" carFollowModel="EIDM" lcStrategic="1.0" lcKeepRight="0" lcOvertakeRight="1" lcCooperative="1" lcSpeedGain="1" lcLookaheadLeft="50"/>
        <vType id="car137" accel="2.5" decel="4.5" length="4.24" maxSpeed="80" vClass="passenger" carFollowModel="EIDM" lcStrategic="1.0" lcKeepRight="0" lcOvertakeRight="1" lcCooperative="1" lcSpeedGain="1" lcLookaheadLeft="50"/>
        <vType id="car138" accel="2.5" decel="4.5" length="4.85" maxSpeed="80" vClass="passenger" carFollowModel="EIDM" lcStrategic="1.0" lcKeepRight="0" lcOvertakeRight="1" lcCooperative="1" lcSpeedGain="1" lcLookaheadLeft="50"/>
        <vType id="car139" accel="2.5" decel="4.5" length="4.65" maxSpeed="80" vClass="passenger" carFollowModel="EIDM" lcStrategic="1.0" lcKeepRight="0" lcOvertakeRight="1" lcCooperative="1" lcSpeedGain="1" lcLookaheadLeft="50"/>
        <vType id="car140" accel="2.5" decel="4.5" length="4.65" maxSpeed="80" vClass="passenger" carFollowModel="EIDM" lcStrategic="1.0" lcKeepRight="0" lcOvertakeRight="1" lcCooperative="1" lcSpeedGain="1" lcLookaheadLeft="50"/>
        <vType id="car141" accel="2.5" decel="4.5" length="4.75" maxSpeed="80" vClass="passenger" carFollowModel="EIDM" lcStrategic="1.0" lcKeepRight="0" lcOvertakeRight="1" lcCooperative="1" lcSpeedGain="1" lcLookaheadLeft="50"/>
        <vType id="car142" accel="2.5" decel="4.5" length="4.45" maxSpeed="80" vClass="passenger" carFollowModel="EIDM" lcStrategic="1.0" lcKeepRight="0" lcOvertakeRight="1" lcCooperative="1" lcSpeedGain="1" lcLookaheadLeft="50"/>
        <vType id="car144" accel="2.5" decel="4.5" length="3.54" maxSpeed="80" vClass="passenger" carFollowModel="EIDM" lcStrategic="1.0" lcKeepRight="0" lcOvertakeRight="1" lcCooperative="1" lcSpeedGain="1" lcLookaheadLeft="50"/>
        <vType id="car145" accel="2.5" decel="4.5" length="4.14" maxSpeed="80" vClass="passenger" carFollowModel="EIDM" lcStrategic="1.0" lcKeepRight="0" lcOvertakeRight="1" lcCooperative="1" lcSpeedGain="1" lcLookaheadLeft="50"/>
        <vType id="car146" accel="2.5" decel="4.5" length="4.55" maxSpeed="80" vClass="passenger" carFollowModel="EIDM" lcStrategic="1.0" lcKeepRight="0" lcOvertakeRight="1" lcCooperative="1" lcSpeedGain="1" lcLookaheadLeft="50"/>
        <vType id="car147" accel="2.5" decel="4.5" length="5.56" maxSpeed="80" vClass="passenger" carFollowModel="EIDM" lcStrategic="1.0" lcKeepRight="0" lcOvertakeRight="1" lcCooperative="1" lcSpeedGain="1" lcLookaheadLeft="50"/>
        <vType id="car148" accel="2.5" decel="4.5" length="4.65" maxSpeed="80" vClass="passenger" carFollowModel="EIDM" lcStrategic="1.0" lcKeepRight="0" lcOvertakeRight="1" lcCooperative="1" lcSpeedGain="1" lcLookaheadLeft="50"/>
        <vType id="car149" accel="2.5" decel="4.5" length="4.65" maxSpeed="80" vClass="passenger" carFollowModel="EIDM" lcStrategic="1.0" lcKeepRight="0" lcOvertakeRight="1" lcCooperative="1" lcSpeedGain="1" lcLookaheadLeft="50"/>
        <vType id="car150" accel="2.5" decel="4.5" length="4.35" maxSpeed="80" vClass="passenger" carFollowModel="EIDM" lcStrategic="1.0" lcKeepRight="0" lcOvertakeRight="1" lcCooperative="1" lcSpeedGain="1" lcLookaheadLeft="50"/>
        <vType id="car151" accel="2.5" decel="4.5" length="4.95" maxSpeed="80" vClass="passenger" carFollowModel="EIDM" lcStrategic="1.0" lcKeepRight="0" lcOvertakeRight="1" lcCooperative="1" lcSpeedGain="1" lcLookaheadLeft="50"/>
        <vType id="car152" accel="2.5" decel="4.5" length="4.75" maxSpeed="80" vClass="passenger" carFollowModel="EIDM" lcStrategic="1.0" lcKeepRight="0" lcOvertakeRight="1" lcCooperative="1" lcSpeedGain="1" lcLookaheadLeft="50"/>
        <vType id="car153" accel="2.5" decel="4.5" length="4.65" maxSpeed="80" vClass="passenger" carFollowModel="EIDM" lcStrategic="1.0" lcKeepRight="0" lcOvertakeRight="1" lcCooperative="1" lcSpeedGain="1" lcLookaheadLeft="50"/>
        <vType id="car154" accel="2.5" decel="4.5" length="4.04" maxSpeed="80" vClass="passenger" carFollowModel="EIDM" lcStrategic="1.0" lcKeepRight="0" lcOvertakeRight="1" lcCooperative="1" lcSpeedGain="1" lcLookaheadLeft="50"/>
        <vType id="car155" accel="2.5" decel="4.5" length="4.75" maxSpeed="80" vClass="passenger" carFollowModel="EIDM" lcStrategic="1.0" lcKeepRight="0" lcOvertakeRight="1" lcCooperative="1" lcSpeedGain="1" lcLookaheadLeft="50"/>
        <vType id="car156" accel="2.5" decel="4.5" length="4.65" maxSpeed="80" vClass="passenger" carFollowModel="EIDM" lcStrategic="1.0" lcKeepRight="0" lcOvertakeRight="1" lcCooperative="1" lcSpeedGain="1" lcLookaheadLeft="50"/>
        <vType id="car157" accel="2.5" decel="4.5" length="4.14" maxSpeed="80" vClass="passenger" carFollowModel="EIDM" lcStrategic="1.0" lcKeepRight="0" lcOvertakeRight="1" lcCooperative="1" lcSpeedGain="1" lcLookaheadLeft="50"/>
        <vType id="car158" accel="2.5" decel="4.5" length="5.46" maxSpeed="80" vClass="passenger" carFollowModel="EIDM" lcStrategic="1.0" lcKeepRight="0" lcOvertakeRight="1" lcCooperative="1" lcSpeedGain="1" lcLookaheadLeft="50"/>
        <vType id="car159" accel="2.5" decel="4.5" length="4.85" maxSpeed="80" vClass="passenger" carFollowModel="EIDM" lcStrategic="1.0" lcKeepRight="0" lcOvertakeRight="1" lcCooperative="1" lcSpeedGain="1" lcLookaheadLeft="50"/>
        <vType id="car160" accel="2.5" decel="4.5" length="4.04" maxSpeed="80" vClass="passenger" carFollowModel="EIDM" lcStrategic="1.0" lcKeepRight="0" lcOvertakeRight="1" lcCooperative="1" lcSpeedGain="1" lcLookaheadLeft="50"/>
        <vType id="car161" accel="2.5" decel="4.5" length="4.95" maxSpeed="80" vClass="passenger" carFollowModel="EIDM" lcStrategic="1.0" lcKeepRight="0" lcOvertakeRight="1" lcCooperative="1" lcSpeedGain="1" lcLookaheadLeft="50"/>
        <vType id="car162" accel="2.5" decel="4.5" length="4.24" maxSpeed="80" vClass="passenger" carFollowModel="EIDM" lcStrategic="1.0" lcKeepRight="0" lcOvertakeRight="1" lcCooperative="1" lcSpeedGain="1" lcLookaheadLeft="50"/>
        <vType id="car164" accel="2.5" decel="4.5" length="5.76" maxSpeed="80" vClass="passenger" carFollowModel="EIDM" lcStrategic="1.0" lcKeepRight="0" lcOvertakeRight="1" lcCooperative="1" lcSpeedGain="1" lcLookaheadLeft="50"/>